
OS:Version,
  {4dba7c50-f953-4fb2-ab51-66e9ce6fb82b}, !- Handle
  3.5.1;                                  !- Version Identifier

OS:Site,
  {9799a934-8eb2-4923-bde4-7de3bc5583af}, !- Handle
  Stewart Field,                          !- Name
  41.5,                                   !- Latitude {deg}
  -74.1,                                  !- Longitude {deg}
  -5,                                     !- Time Zone {hr}
  177,                                    !- Elevation {m}
  ;                                       !- Terrain

OS:YearDescription,
  {e249c525-d267-4df4-bd57-74346162e1ee}, !- Handle
  ,                                       !- Calendar Year
  Sunday;                                 !- Day of Week for Start Day

OS:ClimateZones,
  {02773430-98b6-496f-b328-75aef3db4921}, !- Handle
  ASHRAE,                                 !- Climate Zone Institution Name 1
  ANSI/ASHRAE Standard 169,               !- Climate Zone Document Name 1
  2006,                                   !- Climate Zone Document Year 1
  8,                                      !- Climate Zone Value 1
  CEC,                                    !- Climate Zone Institution Name 2
  California Climate Zone Descriptions,   !- Climate Zone Document Name 2
  1995,                                   !- Climate Zone Document Year 2
  ;                                       !- Climate Zone Value 2

OS:Building,
  {d116d1ba-cd27-41c3-af60-9d4e9e496632}, !- Handle
  PrimarySchool DOE Ref Pre-1980 5A,      !- Name
  ,                                       !- Building Sector Type
  -9.80220723589421,                      !- North Axis {deg}
  ,                                       !- Nominal Floor to Floor Height {m}
  {e88ce703-0565-4b0d-a166-0281478b4a8c}, !- Space Type Name
  {4ea43dab-14c4-4cbe-885f-7a073e85c7f9}, !- Default Construction Set Name
  ,                                       !- Default Schedule Set Name
  ,                                       !- Standards Number of Stories
  ,                                       !- Standards Number of Above Ground Stories
  ,                                       !- Standards Template
  PrimarySchool;                          !- Standards Building Type

OS:Facility,
  {15d01a01-49ba-4070-b1ff-40763ebff9d8}; !- Handle

OS:SimulationControl,
  {5fab07cf-1691-4374-b905-50b80a59bb43}; !- Handle

OS:Sizing:Parameters,
  {e9cf5a10-66d6-4914-9f22-519005939e02}, !- Handle
  1.25,                                   !- Heating Sizing Factor
  1.15;                                   !- Cooling Sizing Factor

OS:Timestep,
  {81b32de6-9d61-49e3-a4f4-252c465c4d90}, !- Handle
  6;                                      !- Number of Timesteps per Hour

OS:ShadowCalculation,
  {cbc43363-fa45-4ea5-9c3f-8b819dd46abe}, !- Handle
  PolygonClipping,                        !- Shading Calculation Method
  ,                                       !- Shading Calculation Update Frequency Method
  20,                                     !- Shading Calculation Update Frequency
  15000,                                  !- Maximum Figures in Shadow Overlap Calculations
  ,                                       !- Polygon Clipping Algorithm
  512,                                    !- Pixel Counting Resolution
  ,                                       !- Sky Diffuse Modeling Algorithm
  No,                                     !- Output External Shading Calculation Results
  No,                                     !- Disable Self-Shading Within Shading Zone Groups
  No;                                     !- Disable Self-Shading From Shading Zone Groups to Other Zones

OS:HeatBalanceAlgorithm,
  {4c89dfb2-94b2-475b-8f8b-64bc0748c3c3}, !- Handle
  ConductionTransferFunction,             !- Algorithm
  200;                                    !- Surface Temperature Upper Limit {C}

OS:RunPeriod,
  {289e846f-61e7-444b-a814-87dae35c4830}, !- Handle
  Run Period 1,                           !- Name
  1,                                      !- Begin Month
  1,                                      !- Begin Day of Month
  12,                                     !- End Month
  31,                                     !- End Day of Month
  ,                                       !- Use Weather File Holidays and Special Days
  ,                                       !- Use Weather File Daylight Saving Period
  ,                                       !- Apply Weekend Holiday Rule
  ,                                       !- Use Weather File Rain Indicators
  ,                                       !- Use Weather File Snow Indicators
  ;                                       !- Number of Times Runperiod to be Repeated

OS:LifeCycleCost:Parameters,
  {f522304a-5b69-41de-9ba0-b0678f185422}, !- Handle
  ,                                       !- Analysis Type
  ,                                       !- Discounting Convention
  ,                                       !- Inflation Approach
  ,                                       !- Real Discount Rate
  ,                                       !- Nominal Discount Rate
  ,                                       !- Inflation
  ,                                       !- Base Date Month
  ,                                       !- Base Date Year
  ,                                       !- Service Date Month
  ,                                       !- Service Date Year
  ;                                       !- Length of Study Period in Years

OS:SizingPeriod:DesignDay,
  {a2418d9a-2b93-4296-836c-d958e643caae}, !- Handle
  Stewart Field Ann Htg 99.6% Condns DB,  !- Name
  -15.8,                                  !- Maximum Dry-Bulb Temperature {C}
  0,                                      !- Daily Dry-Bulb Temperature Range {deltaC}
  99217,                                  !- Barometric Pressure {Pa}
  3.7,                                    !- Wind Speed {m/s}
  290,                                    !- Wind Direction {deg}
  0,                                      !- Sky Clearness
  No,                                     !- Rain Indicator
  No,                                     !- Snow Indicator
  21,                                     !- Day of Month
  1,                                      !- Month
  WinterDesignDay,                        !- Day Type
  No,                                     !- Daylight Saving Time Indicator
  Wetbulb,                                !- Humidity Condition Type
  ,                                       !- Humidity Condition Day Schedule Name
  -15.8,                                  !- Wetbulb or DewPoint at Maximum Dry-Bulb {C}
  ,                                       !- Humidity Ratio at Maximum Dry-Bulb {kgWater/kgDryAir}
  ,                                       !- Enthalpy at Maximum Dry-Bulb {J/kg}
  DefaultMultipliers,                     !- Dry-Bulb Temperature Range Modifier Type
  ,                                       !- Dry-Bulb Temperature Range Modifier Day Schedule Name
  ASHRAEClearSky;                         !- Solar Model Indicator

OS:SizingPeriod:DesignDay,
  {b0c0b945-2668-4422-bf3b-8151eb893e69}, !- Handle
  Stewart Field Ann Hum_n 99.6% Condns DP=>MCDB, !- Name
  -13.5,                                  !- Maximum Dry-Bulb Temperature {C}
  0,                                      !- Daily Dry-Bulb Temperature Range {deltaC}
  99217,                                  !- Barometric Pressure {Pa}
  3.7,                                    !- Wind Speed {m/s}
  290,                                    !- Wind Direction {deg}
  0,                                      !- Sky Clearness
  No,                                     !- Rain Indicator
  No,                                     !- Snow Indicator
  21,                                     !- Day of Month
  1,                                      !- Month
  WinterDesignDay,                        !- Day Type
  No,                                     !- Daylight Saving Time Indicator
  Dewpoint,                               !- Humidity Condition Type
  ,                                       !- Humidity Condition Day Schedule Name
  -22.9,                                  !- Wetbulb or DewPoint at Maximum Dry-Bulb {C}
  ,                                       !- Humidity Ratio at Maximum Dry-Bulb {kgWater/kgDryAir}
  ,                                       !- Enthalpy at Maximum Dry-Bulb {J/kg}
  DefaultMultipliers,                     !- Dry-Bulb Temperature Range Modifier Type
  ,                                       !- Dry-Bulb Temperature Range Modifier Day Schedule Name
  ASHRAEClearSky;                         !- Solar Model Indicator

OS:SizingPeriod:DesignDay,
  {59d954dd-6074-4e4b-a4d5-dea87229d21b}, !- Handle
  Stewart Field Ann Htg Wind 99.6% Condns WS=>MCDB, !- Name
  -1.1,                                   !- Maximum Dry-Bulb Temperature {C}
  0,                                      !- Daily Dry-Bulb Temperature Range {deltaC}
  99217,                                  !- Barometric Pressure {Pa}
  12.9,                                   !- Wind Speed {m/s}
  290,                                    !- Wind Direction {deg}
  0,                                      !- Sky Clearness
  No,                                     !- Rain Indicator
  No,                                     !- Snow Indicator
  21,                                     !- Day of Month
  1,                                      !- Month
  WinterDesignDay,                        !- Day Type
  No,                                     !- Daylight Saving Time Indicator
  Wetbulb,                                !- Humidity Condition Type
  ,                                       !- Humidity Condition Day Schedule Name
  -1.1,                                   !- Wetbulb or DewPoint at Maximum Dry-Bulb {C}
  ,                                       !- Humidity Ratio at Maximum Dry-Bulb {kgWater/kgDryAir}
  ,                                       !- Enthalpy at Maximum Dry-Bulb {J/kg}
  DefaultMultipliers,                     !- Dry-Bulb Temperature Range Modifier Type
  ,                                       !- Dry-Bulb Temperature Range Modifier Day Schedule Name
  ASHRAEClearSky;                         !- Solar Model Indicator

OS:SizingPeriod:DesignDay,
  {3eda9121-e5a0-4a0d-9cc0-9670d926f0ef}, !- Handle
  Stewart Field Ann Clg .4% Condns DB=>MWB, !- Name
  32.1,                                   !- Maximum Dry-Bulb Temperature {C}
  10.3,                                   !- Daily Dry-Bulb Temperature Range {deltaC}
  99217,                                  !- Barometric Pressure {Pa}
  4.8,                                    !- Wind Speed {m/s}
  240,                                    !- Wind Direction {deg}
  ,                                       !- Sky Clearness
  No,                                     !- Rain Indicator
  No,                                     !- Snow Indicator
  21,                                     !- Day of Month
  7,                                      !- Month
  SummerDesignDay,                        !- Day Type
  No,                                     !- Daylight Saving Time Indicator
  Wetbulb,                                !- Humidity Condition Type
  ,                                       !- Humidity Condition Day Schedule Name
  22.5,                                   !- Wetbulb or DewPoint at Maximum Dry-Bulb {C}
  ,                                       !- Humidity Ratio at Maximum Dry-Bulb {kgWater/kgDryAir}
  ,                                       !- Enthalpy at Maximum Dry-Bulb {J/kg}
  DefaultMultipliers,                     !- Dry-Bulb Temperature Range Modifier Type
  ,                                       !- Dry-Bulb Temperature Range Modifier Day Schedule Name
  ASHRAETau,                              !- Solar Model Indicator
  ,                                       !- Beam Solar Day Schedule Name
  ,                                       !- Diffuse Solar Day Schedule Name
  0.476,                                  !- ASHRAE Clear Sky Optical Depth for Beam Irradiance {dimensionless}
  1.96;                                   !- ASHRAE Clear Sky Optical Depth for Diffuse Irradiance {dimensionless}

OS:SizingPeriod:DesignDay,
  {09b7f99a-5ca6-4013-84a1-d23daf2c0fdc}, !- Handle
  Stewart Field Ann Clg .4% Condns WB=>MDB, !- Name
  29.2,                                   !- Maximum Dry-Bulb Temperature {C}
  10.3,                                   !- Daily Dry-Bulb Temperature Range {deltaC}
  99217,                                  !- Barometric Pressure {Pa}
  4.8,                                    !- Wind Speed {m/s}
  240,                                    !- Wind Direction {deg}
  ,                                       !- Sky Clearness
  No,                                     !- Rain Indicator
  No,                                     !- Snow Indicator
  21,                                     !- Day of Month
  7,                                      !- Month
  SummerDesignDay,                        !- Day Type
  No,                                     !- Daylight Saving Time Indicator
  Wetbulb,                                !- Humidity Condition Type
  ,                                       !- Humidity Condition Day Schedule Name
  24.5,                                   !- Wetbulb or DewPoint at Maximum Dry-Bulb {C}
  ,                                       !- Humidity Ratio at Maximum Dry-Bulb {kgWater/kgDryAir}
  ,                                       !- Enthalpy at Maximum Dry-Bulb {J/kg}
  DefaultMultipliers,                     !- Dry-Bulb Temperature Range Modifier Type
  ,                                       !- Dry-Bulb Temperature Range Modifier Day Schedule Name
  ASHRAETau,                              !- Solar Model Indicator
  ,                                       !- Beam Solar Day Schedule Name
  ,                                       !- Diffuse Solar Day Schedule Name
  0.476,                                  !- ASHRAE Clear Sky Optical Depth for Beam Irradiance {dimensionless}
  1.96;                                   !- ASHRAE Clear Sky Optical Depth for Diffuse Irradiance {dimensionless}

OS:SizingPeriod:DesignDay,
  {cca435f1-1368-48a7-9c45-ec176e5e7d10}, !- Handle
  Stewart Field Ann Clg .4% Condns DP=>MDB, !- Name
  27.1,                                   !- Maximum Dry-Bulb Temperature {C}
  10.3,                                   !- Daily Dry-Bulb Temperature Range {deltaC}
  99217,                                  !- Barometric Pressure {Pa}
  4.8,                                    !- Wind Speed {m/s}
  240,                                    !- Wind Direction {deg}
  ,                                       !- Sky Clearness
  No,                                     !- Rain Indicator
  No,                                     !- Snow Indicator
  21,                                     !- Day of Month
  7,                                      !- Month
  SummerDesignDay,                        !- Day Type
  No,                                     !- Daylight Saving Time Indicator
  Dewpoint,                               !- Humidity Condition Type
  ,                                       !- Humidity Condition Day Schedule Name
  22.9,                                   !- Wetbulb or DewPoint at Maximum Dry-Bulb {C}
  ,                                       !- Humidity Ratio at Maximum Dry-Bulb {kgWater/kgDryAir}
  ,                                       !- Enthalpy at Maximum Dry-Bulb {J/kg}
  DefaultMultipliers,                     !- Dry-Bulb Temperature Range Modifier Type
  ,                                       !- Dry-Bulb Temperature Range Modifier Day Schedule Name
  ASHRAETau,                              !- Solar Model Indicator
  ,                                       !- Beam Solar Day Schedule Name
  ,                                       !- Diffuse Solar Day Schedule Name
  0.476,                                  !- ASHRAE Clear Sky Optical Depth for Beam Irradiance {dimensionless}
  1.96;                                   !- ASHRAE Clear Sky Optical Depth for Diffuse Irradiance {dimensionless}

OS:SizingPeriod:DesignDay,
  {88afa157-040a-444f-a9ef-a00260c2c9d1}, !- Handle
  Stewart Field Ann Clg .4% Condns Enth=>MDB, !- Name
  29.3,                                   !- Maximum Dry-Bulb Temperature {C}
  10.3,                                   !- Daily Dry-Bulb Temperature Range {deltaC}
  99217,                                  !- Barometric Pressure {Pa}
  4.8,                                    !- Wind Speed {m/s}
  240,                                    !- Wind Direction {deg}
  ,                                       !- Sky Clearness
  No,                                     !- Rain Indicator
  No,                                     !- Snow Indicator
  21,                                     !- Day of Month
  7,                                      !- Month
  SummerDesignDay,                        !- Day Type
  No,                                     !- Daylight Saving Time Indicator
  Enthalpy,                               !- Humidity Condition Type
  ,                                       !- Humidity Condition Day Schedule Name
  23,                                     !- Wetbulb or DewPoint at Maximum Dry-Bulb {C}
  ,                                       !- Humidity Ratio at Maximum Dry-Bulb {kgWater/kgDryAir}
  74600,                                  !- Enthalpy at Maximum Dry-Bulb {J/kg}
  DefaultMultipliers,                     !- Dry-Bulb Temperature Range Modifier Type
  ,                                       !- Dry-Bulb Temperature Range Modifier Day Schedule Name
  ASHRAETau,                              !- Solar Model Indicator
  ,                                       !- Beam Solar Day Schedule Name
  ,                                       !- Diffuse Solar Day Schedule Name
  0.476,                                  !- ASHRAE Clear Sky Optical Depth for Beam Irradiance {dimensionless}
  1.96;                                   !- ASHRAE Clear Sky Optical Depth for Diffuse Irradiance {dimensionless}

OS:Rendering:Color,
  {3be4bc58-6a90-4023-b0dd-9c9c3a1ddf67}, !- Handle
  Rendering Color 1,                      !- Name
  102,                                    !- Rendering Red Value
  153,                                    !- Rendering Green Value
  204,                                    !- Rendering Blue Value
  255;                                    !- Rendering Alpha Value

OS:BuildingStory,
  {ca218529-1e1c-4756-91cc-14ffa09a3881}, !- Handle
  Story 2,                                !- Name
  2.4384,                                 !- Nominal Z Coordinate {m}
  2.4384,                                 !- Nominal Floor to Floor Height {m}
  ,                                       !- Default Construction Set Name
  ,                                       !- Default Schedule Set Name
  {ce595b8e-708d-477f-b55f-c38e7997f380}, !- Group Rendering Name
  2.4384;                                 !- Nominal Floor to Ceiling Height {m}

OS:Rendering:Color,
  {ce595b8e-708d-477f-b55f-c38e7997f380}, !- Handle
  Rendering Color 2,                      !- Name
  17,                                     !- Rendering Red Value
  119,                                    !- Rendering Green Value
  51,                                     !- Rendering Blue Value
  255;                                    !- Rendering Alpha Value

OS:Space,
  {5c37ef91-0989-48d0-9d1c-aed1b9dc6542}, !- Handle
  Space 1 - 1,                            !- Name
  {e88ce703-0565-4b0d-a166-0281478b4a8c}, !- Space Type Name
  ,                                       !- Default Construction Set Name
  ,                                       !- Default Schedule Set Name
  ,                                       !- Direction of Relative North {deg}
  ,                                       !- X Origin {m}
  ,                                       !- Y Origin {m}
  ,                                       !- Z Origin {m}
  {e26b35ab-f423-4ce7-a7bf-e467fe12343d}, !- Building Story Name
  {4c4b74e4-5bbf-48ad-96ac-09d7b9174cfc}, !- Thermal Zone Name
  ,                                       !- Part of Total Floor Area
  {d0fad9cd-212a-4343-b577-0c4a588fc3b2}, !- Design Specification Outdoor Air Object Name
  ;                                       !- Building Unit Name

OS:Rendering:Color,
  {fd3b456a-b940-4bed-89e8-cb9cfb3ac0b3}, !- Handle
  Rendering Color 3,                      !- Name
  136,                                    !- Rendering Red Value
  204,                                    !- Rendering Green Value
  238,                                    !- Rendering Blue Value
  255;                                    !- Rendering Alpha Value

OS:BuildingStory,
  {e26b35ab-f423-4ce7-a7bf-e467fe12343d}, !- Handle
  Story 1,                                !- Name
  0,                                      !- Nominal Z Coordinate {m}
  2.4384,                                 !- Nominal Floor to Floor Height {m}
  ,                                       !- Default Construction Set Name
  ,                                       !- Default Schedule Set Name
  {43ef4312-7eed-4540-ba57-a7787d859fb9}, !- Group Rendering Name
  2.4384;                                 !- Nominal Floor to Ceiling Height {m}

OS:Rendering:Color,
  {43ef4312-7eed-4540-ba57-a7787d859fb9}, !- Handle
  Rendering Color 4,                      !- Name
  51,                                     !- Rendering Red Value
  34,                                     !- Rendering Green Value
  136,                                    !- Rendering Blue Value
  255;                                    !- Rendering Alpha Value

OS:Space,
  {40aa4a97-13c3-41a2-9a09-fa3e347a6c60}, !- Handle
  Space 1 - 2,                            !- Name
  {e88ce703-0565-4b0d-a166-0281478b4a8c}, !- Space Type Name
  ,                                       !- Default Construction Set Name
  ,                                       !- Default Schedule Set Name
  ,                                       !- Direction of Relative North {deg}
  ,                                       !- X Origin {m}
  ,                                       !- Y Origin {m}
  ,                                       !- Z Origin {m}
  {e26b35ab-f423-4ce7-a7bf-e467fe12343d}, !- Building Story Name
  {56115819-b713-467b-b8a6-edf028073c0f}, !- Thermal Zone Name
  ,                                       !- Part of Total Floor Area
  {d0fad9cd-212a-4343-b577-0c4a588fc3b2}, !- Design Specification Outdoor Air Object Name
  ;                                       !- Building Unit Name

OS:Rendering:Color,
  {70ea4299-595b-44d7-8120-45f78525645f}, !- Handle
  Rendering Color 5,                      !- Name
  51,                                     !- Rendering Red Value
  34,                                     !- Rendering Green Value
  136,                                    !- Rendering Blue Value
  255;                                    !- Rendering Alpha Value

OS:Rendering:Color,
  {29b06280-3736-4643-8289-9ae918cd2e4c}, !- Handle
  Rendering Color 6,                      !- Name
  153,                                    !- Rendering Red Value
  153,                                    !- Rendering Green Value
  51,                                     !- Rendering Blue Value
  255;                                    !- Rendering Alpha Value

OS:Rendering:Color,
  {3c99a3be-9231-4af3-95d2-bd70b9643620}, !- Handle
  Rendering Color 7,                      !- Name
  221,                                    !- Rendering Red Value
  204,                                    !- Rendering Green Value
  119,                                    !- Rendering Blue Value
  255;                                    !- Rendering Alpha Value

OS:Rendering:Color,
  {493b3ec7-dbd3-4f5b-8f23-ce1213a17585}, !- Handle
  Rendering Color 8,                      !- Name
  68,                                     !- Rendering Red Value
  170,                                    !- Rendering Green Value
  153,                                    !- Rendering Blue Value
  255;                                    !- Rendering Alpha Value

OS:Space,
  {8b4a37fe-19e1-43d0-b20e-de17d0cc0d48}, !- Handle
  Space 2 - 1,                            !- Name
  {e88ce703-0565-4b0d-a166-0281478b4a8c}, !- Space Type Name
  ,                                       !- Default Construction Set Name
  ,                                       !- Default Schedule Set Name
  ,                                       !- Direction of Relative North {deg}
  ,                                       !- X Origin {m}
  ,                                       !- Y Origin {m}
  ,                                       !- Z Origin {m}
  {ca218529-1e1c-4756-91cc-14ffa09a3881}, !- Building Story Name
  {24421ebe-b97e-41f7-a9a4-e4fd8829ab17}, !- Thermal Zone Name
  ,                                       !- Part of Total Floor Area
  {d0fad9cd-212a-4343-b577-0c4a588fc3b2}, !- Design Specification Outdoor Air Object Name
  ;                                       !- Building Unit Name

OS:Rendering:Color,
  {6ad0ae8e-fadc-4ff4-a3b1-ea25015fe375}, !- Handle
  Rendering Color 9,                      !- Name
  204,                                    !- Rendering Red Value
  102,                                    !- Rendering Green Value
  119,                                    !- Rendering Blue Value
  255;                                    !- Rendering Alpha Value

OS:Space,
  {fed1ecf9-7465-41d9-8408-0df778d9139f}, !- Handle
  Space 2 - 2,                            !- Name
  {e88ce703-0565-4b0d-a166-0281478b4a8c}, !- Space Type Name
  ,                                       !- Default Construction Set Name
  ,                                       !- Default Schedule Set Name
  ,                                       !- Direction of Relative North {deg}
  ,                                       !- X Origin {m}
  ,                                       !- Y Origin {m}
  ,                                       !- Z Origin {m}
  {ca218529-1e1c-4756-91cc-14ffa09a3881}, !- Building Story Name
  {29099810-6249-42e3-b1ca-e01fdd398b47}, !- Thermal Zone Name
  ,                                       !- Part of Total Floor Area
  {d0fad9cd-212a-4343-b577-0c4a588fc3b2}, !- Design Specification Outdoor Air Object Name
  ;                                       !- Building Unit Name

OS:Rendering:Color,
  {d8a49aba-0847-4539-acd3-eaabe7547ffe}, !- Handle
  Rendering Color 10,                     !- Name
  136,                                    !- Rendering Red Value
  34,                                     !- Rendering Green Value
  85,                                     !- Rendering Blue Value
  255;                                    !- Rendering Alpha Value

OS:Space,
  {aed984ff-ecf1-4609-b8f6-d5ee1df84417}, !- Handle
  Space 3 - 1,                            !- Name
  {e88ce703-0565-4b0d-a166-0281478b4a8c}, !- Space Type Name
  ,                                       !- Default Construction Set Name
  ,                                       !- Default Schedule Set Name
  ,                                       !- Direction of Relative North {deg}
  ,                                       !- X Origin {m}
  ,                                       !- Y Origin {m}
  ,                                       !- Z Origin {m}
  {817b752d-d71e-4603-aea3-cfc76de1407d}, !- Building Story Name
  {fceb4cf9-dafb-4662-a74a-89f170f11ff6}, !- Thermal Zone Name
  ,                                       !- Part of Total Floor Area
  {d0fad9cd-212a-4343-b577-0c4a588fc3b2}, !- Design Specification Outdoor Air Object Name
  ;                                       !- Building Unit Name

OS:Rendering:Color,
  {c9410fd4-99c4-464e-ba7b-7939167b90c4}, !- Handle
  Rendering Color 11,                     !- Name
  102,                                    !- Rendering Red Value
  17,                                     !- Rendering Green Value
  0,                                      !- Rendering Blue Value
  255;                                    !- Rendering Alpha Value

OS:BuildingStory,
  {817b752d-d71e-4603-aea3-cfc76de1407d}, !- Handle
  Story 3,                                !- Name
  4.8768,                                 !- Nominal Z Coordinate {m}
  2.4384,                                 !- Nominal Floor to Floor Height {m}
  ,                                       !- Default Construction Set Name
  ,                                       !- Default Schedule Set Name
  {b9a5b583-b354-4953-8a2e-cbfb9c0595e9}, !- Group Rendering Name
  2.4384;                                 !- Nominal Floor to Ceiling Height {m}

OS:Rendering:Color,
  {b9a5b583-b354-4953-8a2e-cbfb9c0595e9}, !- Handle
  Rendering Color 12,                     !- Name
  153,                                    !- Rendering Red Value
  153,                                    !- Rendering Green Value
  51,                                     !- Rendering Blue Value
  255;                                    !- Rendering Alpha Value

OS:Rendering:Color,
  {ecbd46d6-3a7e-4f03-86c4-8b3944dd7a9e}, !- Handle
  Rendering Color 13,                     !- Name
  170,                                    !- Rendering Red Value
  68,                                     !- Rendering Green Value
  102,                                    !- Rendering Blue Value
  255;                                    !- Rendering Alpha Value

OS:Rendering:Color,